/*--------------------------------*- C++ -*----------------------------------*\
  =========                 |
  \\      /  F ield         | OpenFOAM: The Open Source CFD Toolbox
   \\    /   O peration     | Website:  https://openfoam.org
    \\  /    A nd           | Version:  11
     \\/     M anipulation  |
\*---------------------------------------------------------------------------*/
FoamFile
{
    format      ascii;
    class       dictionary;
    object      blockMeshDict;
}

// * * * * * * * * * * * * * * * * * * * * * * * * * * * * * * * * * * * * * //

convertToMeters 1;

vertices
(
    (-4.20 -4.2 -0.2)
    ( 0.20 -4.2 -0.2)
    ( 0.20  0.2 -0.2)
    (-4.20  0.2 -0.2)
    (-4.20 -4.2  8.1)
    ( 0.20 -4.2  8.1)
    ( 0.20  0.2  8.1)
    (-4.20  0.2  8.1)
);

blocks
(
    hex (0 1 2 3 4 5 6 7) ([...]) simpleGrading (1 1 1)
);


[...]
    
    
boundary
(

);

// ************************************************************************* //
