/*--------------------------------*- C++ -*----------------------------------*\
  =========                 |
  \\      /  F ield         | OpenFOAM: The Open Source CFD Toolbox
   \\    /   O peration     | Website:  https://openfoam.org
    \\  /    A nd           | Version:  11
     \\/     M anipulation  |
\*---------------------------------------------------------------------------*/
FoamFile
{
    format      ascii;
    class       dictionary;
    object      surfaceFeaturesDict;
}
// * * * * * * * * * * * * * * * * * * * * * * * * * * * * * * * * * * * * * //

surfaces
(
    [...]
);


// Identify edges when angle between faces < includedAngle
includedAngle       150;

// Include region boundaries as features
geometricTestOnly   no;

subsetFeatures
{

    // Include nonManifold edges (edges with >2 connected faces)
    nonManifoldEdges    no;

    // Include open edges (edges with 1 connected face)
    openEdges           yes;
}

// Write features to obj format for visualisation
writeObj            yes;
verboseObj          no;


// ************************************************************************* //
