/*--------------------------------*- C++ -*----------------------------------*\
  =========                 |
  \\      /  F ield         | OpenFOAM: The Open Source CFD Toolbox
   \\    /   O peration     | Website:  https://openfoam.org
    \\  /    A nd           | Version:  11
     \\/     M anipulation  |
\*---------------------------------------------------------------------------*/
FoamFile
{
    format      ascii;
    class       dictionary;
    location    "system";
    object      fvConstraints;
}
// * * * * * * * * * * * * * * * * * * * * * * * * * * * * * * * * * * * * * //
// include packaged fvConstraints using #includeConstraint
// #includeConstraint
Pump1
{
   type meanVelocityForce;

   meanVelocityForceCoeffs
  {
	selectionMode cellZone;
	cellZone pump_region;
	fields (U);
	Ubar (0 0 -0.384);
   }
}


// ************************************************************************* //
