/*--------------------------------*- C++ -*----------------------------------*\
  =========                 |
  \\      /  F ield         | OpenFOAM: The Open Source CFD Toolbox
   \\    /   O peration     | Website:  https://openfoam.org
    \\  /    A nd           | Version:  11
     \\/     M anipulation  |
\*---------------------------------------------------------------------------*/
FoamFile
{
    format      ascii;
    class       dictionary;
    location    "constant";
    object      fvModels;
}
// * * * * * * * * * * * * * * * * * * * * * * * * * * * * * * * * * * * * * //

// include packaged fvModels using #includeModel
// #includeModel ...
porosity
{
 type     explicitPorositySource;

 explicitPorositySourceCoeffs
 {
    selectionMode   cellZone;
    cellZone        core_region;

    type            DarcyForchheimer;
    d   [...];
    f   [...];
    coordinateSystem {
      type    cartesian;
      origin  (0 0 0);
      coordinateRotation
	{
	   type    axesRotation;
             e1  (1 0 0);
             e2  (0 1 0);
          }
     }
}

Core_heat
{
	type semiImplicitSource;
	selectionMode cellZone;
	cellZone core_region;

	volumeMode absolute;

	sources
	{	
	h
		{
		explicit [...];
		implicit [...];
		}
	}
}

HX_heat
{
	type semiImplicitSource;
	selectionMode cellZone;
	cellZone hx_region;



	volumeMode absolute;



	sources
	{
	h
		{
		explicit -1e7;
		implicit 0;
		}
}
}

//************************************************************************ //
